Circuit: * C:\users\akshat\Documents\Classes\Circuits\IntroMicroelectronicCircuitswithLaboratory\Lab4\Draft1.asc

ERROR: Node IIN is floating and connected to current source IIN
WARNING: Node NC_02 is floating.
WARNING: Node NC_04 is floating.
WARNING: Node NC_05 is floating.
WARNING: Node NC_07 is floating.
WARNING: Node NC_08 is floating.
WARNING: Node NC_10 is floating.
WARNING: Node NC_11 is floating.

WARNING: Less than two connections to node vout.  This node is used by vout.
WARNING: Less than two connections to node nc_01.  This node is used by m:u1:p1.
WARNING: Less than two connections to node nc_02.  This node is used by m:u1:p1.
WARNING: Less than two connections to node nc_03.  This node is used by m:u7:p1.
WARNING: Less than two connections to node nc_04.  This node is used by m:u7:p1.
WARNING: Less than two connections to node nc_05.  This node is used by m:u7:p1.
WARNING: Less than two connections to node nc_06.  This node is used by m:u8:p1.
WARNING: Less than two connections to node nc_07.  This node is used by m:u8:p1.
WARNING: Less than two connections to node nc_08.  This node is used by m:u8:p1.
WARNING: Less than two connections to node nc_09.  This node is used by m:u9:p1.
WARNING: Less than two connections to node nc_10.  This node is used by m:u9:p1.
WARNING: Less than two connections to node nc_11.  This node is used by m:u9:p1.

Date: Wed Apr 10 10:32:09 2024
Total elapsed time: 0.116 seconds.

tnom = 27
temp = 27
method = trap
totiter = 208
traniter = 0
tranpoints = 0
accept = 0
rejected = 0
matrix size = 26
fillins = 0
solver = Normal
Avg thread counts: 20.0/0.0/20.0/20.0
Matrix Compiler1: 1.18 KB object code size  0.8/0.5/[0.4]
Matrix Compiler2: 1.96 KB object code size  0.6/0.7/[0.4]

