Circuit: * C:\users\akshat\Documents\Classes\Circuits\IntroMicroelectronicCircuitswithLaboratory\Lab5\exp1.asc


Date: Wed Apr 10 23:38:20 2024
Total elapsed time: 0.264 seconds.

tnom = 27
temp = 27
method = trap
totiter = 2020
traniter = 0
tranpoints = 0
accept = 0
rejected = 0
matrix size = 27
fillins = 0
solver = Normal
Avg thread counts: 4.6/0.0/8.3/4.6
Matrix Compiler1: 800 bytes object code size  1.1/1.0/[0.7]
Matrix Compiler2: 1.98 KB object code size  1.0/1.5/[0.7]

